data_aragonite\(0\1\1)
_audit_creation_date              2024-04-12
_audit_creation_method            'Materials Studio'
_symmetry_space_group_name_H-M    'P1'
_symmetry_Int_Tables_number       1
_symmetry_cell_setting            triclinic
loop_
_symmetry_equiv_pos_as_xyz
  x,y,z
_cell_length_a                    4.9614
_cell_length_b                    9.8197
_cell_length_c                    19.4890
_cell_angle_alpha                 90.0000
_cell_angle_beta                  90.0000
_cell_angle_gamma                 90.0000
loop_
_atom_site_label
_atom_site_type_symbol
_atom_site_fract_x
_atom_site_fract_y
_atom_site_fract_z
_atom_site_U_iso_or_equiv
_atom_site_adp_type
_atom_site_occupancy
O1     O     0.54566   0.17960   0.14661   0.01055  Uani   1.00
O2     O     0.54566   0.83786   0.38559   0.01055  Uani   1.00
O3     O     0.59846   0.62068   0.18781   0.01055  Uani   1.00
O4     O     0.59846   0.27895   0.42679   0.01055  Uani   1.00
O5     O     1.04566   0.88239   0.10130   0.01055  Uani   1.00
O6     O     1.04566   0.54066   0.34028   0.01055  Uani   1.00
O7     O     0.09846   0.44130   0.06010   0.01055  Uani   1.00
O8     O     0.09846   0.09957   0.29908   0.01055  Uani   1.00
O9     O     0.59846   0.88239   0.10130   0.01055  Uani   1.00
O10    O     0.59846   0.54066   0.34028   0.01055  Uani   1.00
O11    O     0.54566   0.44130   0.06010   0.01055  Uani   1.00
O12    O     0.54566   0.09957   0.29908   0.01055  Uani   1.00
O13    O     0.09846   0.17960   0.14661   0.01055  Uani   1.00
O14    O     0.09846   0.83786   0.38559   0.01055  Uani   1.00
O15    O     1.04566   0.62068   0.18781   0.01055  Uani   1.00
O16    O     1.04566   0.27895   0.42679   0.01055  Uani   1.00
Ca17   Ca    0.32206   0.05716   0.04622   0.00833  Uani   1.00
Ca18   Ca    0.32206   0.71543   0.28519   0.00833  Uani   1.00
C19    C     0.32206   0.23305   0.16602   0.00699  Uani   1.00
C20    C     0.32206   0.89132   0.40499   0.00699  Uani   1.00
O21    O     0.32206   0.34199   0.20193   0.01286  Uani   1.00
O22    O     0.32206   1.00025   0.44091   0.01286  Uani   1.00
Ca23   Ca    0.82206   0.39292   0.16107   0.00833  Uani   1.00
Ca24   Ca    0.82206   0.05119   0.40005   0.00833  Uani   1.00
C25    C     0.82206   0.67413   0.20722   0.00699  Uani   1.00
C26    C     0.82206   0.33240   0.44619   0.00699  Uani   1.00
O27    O     0.82206   0.77624   0.24791   0.01286  Uani   1.00
O28    O     0.82206   0.43450   0.48689   0.01286  Uani   1.00
Ca29   Ca    0.82206   0.00483   0.20170   0.00833  Uani   1.00
Ca30   Ca    0.82206   0.66309   0.44067   0.00833  Uani   1.00
C31    C     0.82206   0.82894   0.08190   0.00699  Uani   1.00
C32    C     0.82206   0.48721   0.32087   0.00699  Uani   1.00
O33    O     0.82206   0.72000   0.04598   0.01286  Uani   1.00
O34    O     0.82206   0.37827   0.28495   0.01286  Uani   1.00
Ca35   Ca    0.32206   0.66906   0.08684   0.00833  Uani   1.00
Ca36   Ca    0.32206   0.32733   0.32582   0.00833  Uani   1.00
C37    C     0.32206   0.38785   0.04070   0.00699  Uani   1.00
C38    C     0.32206   0.04612   0.27967   0.00699  Uani   1.00
O39    O     0.32206   0.28575   0.00000   0.01286  Uani   1.00
O40    O     0.32206  -0.05598   0.23898   0.01286  Uani   1.00
loop_
_atom_site_aniso_label
_atom_site_aniso_U_11
_atom_site_aniso_U_22
_atom_site_aniso_U_33
_atom_site_aniso_U_12
_atom_site_aniso_U_13
_atom_site_aniso_U_23
O1        0.00661   0.01942   0.00561   0.00138   0.00082  -0.00126
O2        0.00661   0.01942   0.00561   0.00138   0.00082  -0.00126
O3        0.00661   0.00624   0.01879  -0.00122  -0.00105   0.00314
O4        0.00661   0.00624   0.01879  -0.00122  -0.00105   0.00314
O5        0.00661   0.01942   0.00561  -0.00138  -0.00082  -0.00126
O6        0.00661   0.01942   0.00561  -0.00138  -0.00082  -0.00126
O7        0.00661   0.00624   0.01879   0.00122   0.00105   0.00314
O8        0.00661   0.00624   0.01879   0.00122   0.00105   0.00314
O9        0.00661   0.01942   0.00561   0.00138   0.00082  -0.00126
O10       0.00661   0.01942   0.00561   0.00138   0.00082  -0.00126
O11       0.00661   0.00624   0.01879  -0.00122  -0.00105   0.00314
O12       0.00661   0.00624   0.01879  -0.00122  -0.00105   0.00314
O13       0.00661   0.01942   0.00561  -0.00138  -0.00082  -0.00126
O14       0.00661   0.01942   0.00561  -0.00138  -0.00082  -0.00126
O15       0.00661   0.00624   0.01879   0.00122   0.00105   0.00314
O16       0.00661   0.00624   0.01879   0.00122   0.00105   0.00314
Ca17      0.00773   0.00782   0.00945   0.00000   0.00000  -0.00172
Ca18      0.00773   0.00782   0.00945   0.00000   0.00000  -0.00172
C19       0.00811   0.00846   0.00439   0.00000   0.00000   0.00170
C20       0.00811   0.00846   0.00439   0.00000   0.00000   0.00170
O21       0.01521   0.01325   0.01011   0.00000   0.00000  -0.00335
O22       0.01521   0.01325   0.01011   0.00000   0.00000  -0.00335
Ca23      0.00773   0.00826   0.00901   0.00000   0.00000  -0.00186
Ca24      0.00773   0.00826   0.00901   0.00000   0.00000  -0.00186
C25       0.00811   0.00582   0.00703   0.00000   0.00000   0.00258
C26       0.00811   0.00582   0.00703   0.00000   0.00000   0.00258
O27       0.01521   0.00841   0.01495   0.00000   0.00000  -0.00174
O28       0.01521   0.00841   0.01495   0.00000   0.00000  -0.00174
Ca29      0.00773   0.00782   0.00945   0.00000   0.00000  -0.00172
Ca30      0.00773   0.00782   0.00945   0.00000   0.00000  -0.00172
C31       0.00811   0.00846   0.00439   0.00000   0.00000   0.00170
C32       0.00811   0.00846   0.00439   0.00000   0.00000   0.00170
O33       0.01521   0.01325   0.01011   0.00000   0.00000  -0.00335
O34       0.01521   0.01325   0.01011   0.00000   0.00000  -0.00335
Ca35      0.00773   0.00826   0.00901   0.00000   0.00000  -0.00186
Ca36      0.00773   0.00826   0.00901   0.00000   0.00000  -0.00186
C37       0.00811   0.00582   0.00703   0.00000   0.00000   0.00258
C38       0.00811   0.00582   0.00703   0.00000   0.00000   0.00258
O39       0.01521   0.00841   0.01495   0.00000   0.00000  -0.00174
O40       0.01521   0.00841   0.01495   0.00000   0.00000  -0.00174
loop_
_geom_bond_atom_site_label_1
_geom_bond_atom_site_label_2
_geom_bond_distance
_geom_bond_site_symmetry_2
_ccdc_geom_bond_type
O1     C19     1.284   .     S
O2     C20     1.284   .     S
O3     C25     1.284   .     S
O4     C26     1.284   .     S
O5     C31     1.284   .     S
O6     C32     1.284   .     S
O7     C37     1.284   .     S
O8     C38     1.284   .     S
O9     C31     1.284   .     S
O10    C32     1.284   .     S
O11    C37     1.284   .     S
O12    C38     1.284   .     S
O13    C19     1.284   .     S
O14    C20     1.284   .     S
O15    C25     1.284   .     S
O16    C26     1.284   .     S
C19    O21     1.278   .     D
C20    O22     1.278   .     D
C25    O27     1.278   .     D
C26    O28     1.278   .     D
C31    O33     1.278   .     D
C32    O34     1.278   .     D
C37    O39     1.278   .     D
C38    O40     1.278   .     D
