data_aragonite\(1\1\0)
_audit_creation_date              2024-04-12
_audit_creation_method            'Materials Studio'
_symmetry_space_group_name_H-M    'P1'
_symmetry_Int_Tables_number       1
_symmetry_cell_setting            triclinic
loop_
_symmetry_equiv_pos_as_xyz
  x,y,z
_cell_length_a                    5.7404
_cell_length_b                    9.3856
_cell_length_c                    18.2445
_cell_angle_alpha                 90.0000
_cell_angle_beta                  90.0000
_cell_angle_gamma                 90.0000
loop_
_atom_site_label
_atom_site_type_symbol
_atom_site_fract_x
_atom_site_fract_y
_atom_site_fract_z
_atom_site_U_iso_or_equiv
_atom_site_adp_type
_atom_site_occupancy
O1     O     0.91380   0.80333   0.10323   0.01055  Uani   1.00
O2     O     0.91380   1.08277   0.33407   0.01055  Uani   1.00
O3     O     0.58620   0.17837   0.00000   0.01055  Uani   1.00
O4     O     0.58620   0.45780   0.23084   0.01055  Uani   1.00
O5     O     0.08620   0.20389   0.13509   0.01055  Uani   1.00
O6     O     0.08620   0.48333   0.36593   0.01055  Uani   1.00
O7     O     0.41380   0.57893   0.03186   0.01055  Uani   1.00
O8     O     0.41380   0.85836   0.26269   0.01055  Uani   1.00
O9     O     0.08620   0.07893   0.03186   0.01055  Uani   1.00
O10    O     0.08620   0.35836   0.26269   0.01055  Uani   1.00
O11    O     0.41380   0.70389   0.13509   0.01055  Uani   1.00
O12    O     0.41380   0.98333   0.36593   0.01055  Uani   1.00
O13    O     0.91380   0.67837   0.00000   0.01055  Uani   1.00
O14    O     0.91380   0.95780   0.23084   0.01055  Uani   1.00
O15    O     0.58620   0.30333   0.10323   0.01055  Uani   1.00
O16    O     0.58620   0.58277   0.33407   0.01055  Uani   1.00
Ca17   Ca    0.75970   0.21195   0.22105   0.00833  Uani   1.00
Ca18   Ca    0.75970   0.49139   0.45189   0.00833  Uani   1.00
C19    C     0.91380   0.68234   0.07036   0.00699  Uani   1.00
C20    C     0.91380   0.96177   0.30120   0.00699  Uani   1.00
O21    O     0.90380   0.56683   0.10736   0.01286  Uani   1.00
O22    O     0.90380   0.84627   0.33820   0.01286  Uani   1.00
Ca23   Ca    0.74030   0.71195   0.22105   0.00833  Uani   1.00
Ca24   Ca    0.74030   0.99139   0.45189   0.00833  Uani   1.00
C25    C     0.58620   0.18234   0.07036   0.00699  Uani   1.00
C26    C     0.58620   0.46177   0.30120   0.00699  Uani   1.00
O27    O     0.59620   0.06683   0.10736   0.01286  Uani   1.00
O28    O     0.59620   0.34627   0.33820   0.01286  Uani   1.00
Ca29   Ca    0.24030   0.94974   0.14487   0.00833  Uani   1.00
Ca30   Ca    0.24030   0.22918   0.37571   0.00833  Uani   1.00
C31    C     0.08620   0.19992   0.06473   0.00699  Uani   1.00
C32    C     0.08620   0.47936   0.29557   0.00699  Uani   1.00
O33    O     0.09620   0.31543   0.02772   0.01286  Uani   1.00
O34    O     0.09620   0.59486   0.25856   0.01286  Uani   1.00
Ca35   Ca    0.25970   0.44974   0.14487   0.00833  Uani   1.00
Ca36   Ca    0.25970   0.72918   0.37571   0.00833  Uani   1.00
C37    C     0.41380   0.69992   0.06473   0.00699  Uani   1.00
C38    C     0.41380   0.97936   0.29557   0.00699  Uani   1.00
O39    O     0.40380   0.81543   0.02772   0.01286  Uani   1.00
O40    O     0.40380   1.09486   0.25856   0.01286  Uani   1.00
loop_
_atom_site_aniso_label
_atom_site_aniso_U_11
_atom_site_aniso_U_22
_atom_site_aniso_U_33
_atom_site_aniso_U_12
_atom_site_aniso_U_13
_atom_site_aniso_U_23
O1        0.01152   0.01015   0.00997   0.00583  -0.00379  -0.00380
O2        0.01152   0.01015   0.00997   0.00583  -0.00379  -0.00380
O3        0.01152   0.01302   0.00710  -0.00597   0.00356  -0.00239
O4        0.01152   0.01302   0.00710  -0.00597   0.00356  -0.00239
O5        0.01152   0.01302   0.00710   0.00597  -0.00356  -0.00239
O6        0.01152   0.01302   0.00710   0.00597  -0.00356  -0.00239
O7        0.01152   0.01015   0.00997  -0.00583   0.00379  -0.00380
O8        0.01152   0.01015   0.00997  -0.00583   0.00379  -0.00380
O9        0.01152   0.01015   0.00997   0.00583  -0.00379  -0.00380
O10       0.01152   0.01015   0.00997   0.00583  -0.00379  -0.00380
O11       0.01152   0.01302   0.00710  -0.00597   0.00356  -0.00239
O12       0.01152   0.01302   0.00710  -0.00597   0.00356  -0.00239
O13       0.01152   0.01302   0.00710   0.00597  -0.00356  -0.00239
O14       0.01152   0.01302   0.00710   0.00597  -0.00356  -0.00239
O15       0.01152   0.01015   0.00997  -0.00583   0.00379  -0.00380
O16       0.01152   0.01015   0.00997  -0.00583   0.00379  -0.00380
Ca17      0.01052   0.00702   0.00746  -0.00020   0.00012   0.00044
Ca18      0.01052   0.00702   0.00746  -0.00020   0.00012   0.00044
C19       0.00417   0.00852   0.00827   0.00118  -0.00073  -0.00026
C20       0.00417   0.00852   0.00827   0.00118  -0.00073  -0.00026
O21       0.01436   0.01074   0.01347   0.00216  -0.00135   0.00279
O22       0.01436   0.01074   0.01347   0.00216  -0.00135   0.00279
Ca23      0.01052   0.00702   0.00746   0.00020  -0.00012   0.00044
Ca24      0.01052   0.00702   0.00746   0.00020  -0.00012   0.00044
C25       0.00417   0.00852   0.00827  -0.00118   0.00073  -0.00026
C26       0.00417   0.00852   0.00827  -0.00118   0.00073  -0.00026
O27       0.01436   0.01074   0.01347  -0.00216   0.00135   0.00279
O28       0.01436   0.01074   0.01347  -0.00216   0.00135   0.00279
Ca29      0.01052   0.00702   0.00746  -0.00020   0.00012   0.00044
Ca30      0.01052   0.00702   0.00746  -0.00020   0.00012   0.00044
C31       0.00417   0.00852   0.00827   0.00118  -0.00073  -0.00026
C32       0.00417   0.00852   0.00827   0.00118  -0.00073  -0.00026
O33       0.01436   0.01074   0.01347   0.00216  -0.00135   0.00279
O34       0.01436   0.01074   0.01347   0.00216  -0.00135   0.00279
Ca35      0.01052   0.00702   0.00746   0.00020  -0.00012   0.00044
Ca36      0.01052   0.00702   0.00746   0.00020  -0.00012   0.00044
C37       0.00417   0.00852   0.00827  -0.00118   0.00073  -0.00026
C38       0.00417   0.00852   0.00827  -0.00118   0.00073  -0.00026
O39       0.01436   0.01074   0.01347  -0.00216   0.00135   0.00279
O40       0.01436   0.01074   0.01347  -0.00216   0.00135   0.00279
loop_
_geom_bond_atom_site_label_1
_geom_bond_atom_site_label_2
_geom_bond_distance
_geom_bond_site_symmetry_2
_ccdc_geom_bond_type
O1     C19     1.284   .     S
O2     C20     1.284   .     S
O3     C25     1.284   .     S
O4     C26     1.284   .     S
O5     C31     1.284   .     S
O6     C32     1.284   .     S
O7     C37     1.284   .     S
O8     C38     1.284   .     S
O9     C31     1.284   .     S
O10    C32     1.284   .     S
O11    C37     1.284   .     S
O12    C38     1.284   .     S
O13    C19     1.284   .     S
O14    C20     1.284   .     S
O15    C25     1.284   .     S
O16    C26     1.284   .     S
C19    O21     1.278   .     D
C20    O22     1.278   .     D
C25    O27     1.278   .     D
C26    O28     1.278   .     D
C31    O33     1.278   .     D
C32    O34     1.278   .     D
C37    O39     1.278   .     D
C38    O40     1.278   .     D
