data_aragonite\(0\1\0)
_audit_creation_date              2024-04-12
_audit_creation_method            'Materials Studio'
_symmetry_space_group_name_H-M    'P1'
_symmetry_Int_Tables_number       1
_symmetry_cell_setting            triclinic
loop_
_symmetry_equiv_pos_as_xyz
  x,y,z
_cell_length_a                    5.7404
_cell_length_b                    4.9614
_cell_length_c                    24.6993
_cell_angle_alpha                 90.0000
_cell_angle_beta                  90.0000
_cell_angle_gamma                 90.0000
loop_
_atom_site_label
_atom_site_type_symbol
_atom_site_fract_x
_atom_site_fract_y
_atom_site_fract_z
_atom_site_U_iso_or_equiv
_atom_site_adp_type
_atom_site_occupancy
O1     O     0.91380   0.47360   0.19467   0.01055  Uani   1.00
O2     O     0.91380   0.47360   0.51723   0.01055  Uani   1.00
O3     O     0.58620   0.52640   0.03339   0.01055  Uani   1.00
O4     O     0.58620   0.52640   0.35595   0.01055  Uani   1.00
O5     O     0.08620   0.97360   0.07790   0.01055  Uani   1.00
O6     O     0.08620   0.97360   0.40046   0.01055  Uani   1.00
O7     O     0.41380   0.02640   0.23918   0.01055  Uani   1.00
O8     O     0.41380   0.02640   0.56174   0.01055  Uani   1.00
O9     O     0.08620   0.52640   0.07790   0.01055  Uani   1.00
O10    O     0.08620   0.52640   0.40046   0.01055  Uani   1.00
O11    O     0.41380   0.47360   0.23918   0.01055  Uani   1.00
O12    O     0.41380   0.47360   0.56174   0.01055  Uani   1.00
O13    O     0.91380   0.02640   0.19467   0.01055  Uani   1.00
O14    O     0.91380   0.02640   0.51723   0.01055  Uani   1.00
O15    O     0.58620   0.97360   0.03339   0.01055  Uani   1.00
O16    O     0.58620   0.97360   0.35595   0.01055  Uani   1.00
Ca17   Ca    0.75970   0.25000   0.10887   0.00833  Uani   1.00
Ca18   Ca    0.75970   0.25000   0.43143   0.00833  Uani   1.00
C19    C     0.91380   0.25000   0.22086   0.00699  Uani   1.00
C20    C     0.91380   0.25000   0.54342   0.00699  Uani   1.00
O21    O     0.90380   0.25000   0.27257   0.01286  Uani   1.00
O22    O     0.90380   0.25000   0.59513   0.01286  Uani   1.00
Ca23   Ca    0.74030   0.75000   0.27015   0.00833  Uani   1.00
Ca24   Ca    0.74030   0.75000   0.59271   0.00833  Uani   1.00
C25    C     0.58620   0.75000   0.05958   0.00699  Uani   1.00
C26    C     0.58620   0.75000   0.38214   0.00699  Uani   1.00
O27    O     0.59620   0.75000   0.11128   0.01286  Uani   1.00
O28    O     0.59620   0.75000   0.43385   0.01286  Uani   1.00
Ca29   Ca    0.24030   0.75000   0.16370   0.00833  Uani   1.00
Ca30   Ca    0.24030   0.75000   0.48626   0.00833  Uani   1.00
C31    C     0.08620   0.75000   0.05171   0.00699  Uani   1.00
C32    C     0.08620   0.75000   0.37427   0.00699  Uani   1.00
O33    O     0.09620   0.75000   0.00000   0.01286  Uani   1.00
O34    O     0.09620   0.75000   0.32256   0.01286  Uani   1.00
Ca35   Ca    0.25970   0.25000   0.00242   0.00833  Uani   1.00
Ca36   Ca    0.25970   0.25000   0.32498   0.00833  Uani   1.00
C37    C     0.41380   0.25000   0.21299   0.00699  Uani   1.00
C38    C     0.41380   0.25000   0.53555   0.00699  Uani   1.00
O39    O     0.40380   0.25000   0.16128   0.01286  Uani   1.00
O40    O     0.40380   0.25000   0.48385   0.01286  Uani   1.00
loop_
_atom_site_aniso_label
_atom_site_aniso_U_11
_atom_site_aniso_U_22
_atom_site_aniso_U_33
_atom_site_aniso_U_12
_atom_site_aniso_U_13
_atom_site_aniso_U_23
O1        0.01152   0.00661   0.01351  -0.00014  -0.00695   0.00160
O2        0.01152   0.00661   0.01351  -0.00014  -0.00695   0.00160
O3        0.01152   0.00661   0.01351  -0.00014   0.00695  -0.00160
O4        0.01152   0.00661   0.01351  -0.00014   0.00695  -0.00160
O5        0.01152   0.00661   0.01351   0.00014  -0.00695  -0.00160
O6        0.01152   0.00661   0.01351   0.00014  -0.00695  -0.00160
O7        0.01152   0.00661   0.01351   0.00014   0.00695   0.00160
O8        0.01152   0.00661   0.01351   0.00014   0.00695   0.00160
O9        0.01152   0.00661   0.01351  -0.00014  -0.00695   0.00160
O10       0.01152   0.00661   0.01351  -0.00014  -0.00695   0.00160
O11       0.01152   0.00661   0.01351  -0.00014   0.00695  -0.00160
O12       0.01152   0.00661   0.01351  -0.00014   0.00695  -0.00160
O13       0.01152   0.00661   0.01351   0.00014  -0.00695  -0.00160
O14       0.01152   0.00661   0.01351   0.00014  -0.00695  -0.00160
O15       0.01152   0.00661   0.01351   0.00014   0.00695   0.00160
O16       0.01152   0.00661   0.01351   0.00014   0.00695   0.00160
Ca17      0.01052   0.00773   0.00675   0.00000   0.00023   0.00000
Ca18      0.01052   0.00773   0.00675   0.00000   0.00023   0.00000
C19       0.00417   0.00811   0.00868   0.00000  -0.00139   0.00000
C20       0.00417   0.00811   0.00868   0.00000  -0.00139   0.00000
O21       0.01436   0.01521   0.00900   0.00000  -0.00255   0.00000
O22       0.01436   0.01521   0.00900   0.00000  -0.00255   0.00000
Ca23      0.01052   0.00773   0.00675   0.00000  -0.00023   0.00000
Ca24      0.01052   0.00773   0.00675   0.00000  -0.00023   0.00000
C25       0.00417   0.00811   0.00868   0.00000   0.00139   0.00000
C26       0.00417   0.00811   0.00868   0.00000   0.00139   0.00000
O27       0.01436   0.01521   0.00900   0.00000   0.00255   0.00000
O28       0.01436   0.01521   0.00900   0.00000   0.00255   0.00000
Ca29      0.01052   0.00773   0.00675   0.00000   0.00023   0.00000
Ca30      0.01052   0.00773   0.00675   0.00000   0.00023   0.00000
C31       0.00417   0.00811   0.00868   0.00000  -0.00139   0.00000
C32       0.00417   0.00811   0.00868   0.00000  -0.00139   0.00000
O33       0.01436   0.01521   0.00900   0.00000  -0.00255   0.00000
O34       0.01436   0.01521   0.00900   0.00000  -0.00255   0.00000
Ca35      0.01052   0.00773   0.00675   0.00000  -0.00023   0.00000
Ca36      0.01052   0.00773   0.00675   0.00000  -0.00023   0.00000
C37       0.00417   0.00811   0.00868   0.00000   0.00139   0.00000
C38       0.00417   0.00811   0.00868   0.00000   0.00139   0.00000
O39       0.01436   0.01521   0.00900   0.00000   0.00255   0.00000
O40       0.01436   0.01521   0.00900   0.00000   0.00255   0.00000
loop_
_geom_bond_atom_site_label_1
_geom_bond_atom_site_label_2
_geom_bond_distance
_geom_bond_site_symmetry_2
_ccdc_geom_bond_type
O1     C19     1.284   .     S
O2     C20     1.284   .     S
O3     C25     1.284   .     S
O4     C26     1.284   .     S
O5     C31     1.284   .     S
O6     C32     1.284   .     S
O7     C37     1.284   .     S
O8     C38     1.284   .     S
O9     C31     1.284   .     S
O10    C32     1.284   .     S
O11    C37     1.284   .     S
O12    C38     1.284   .     S
O13    C19     1.284   .     S
O14    C20     1.284   .     S
O15    C25     1.284   .     S
O16    C26     1.284   .     S
C19    O21     1.278   .     D
C20    O22     1.278   .     D
C25    O27     1.278   .     D
C26    O28     1.278   .     D
C31    O33     1.278   .     D
C32    O34     1.278   .     D
C37    O39     1.278   .     D
C38    O40     1.278   .     D
