data_calcite\(0\0\1)\(2)
_audit_creation_date              2024-04-12
_audit_creation_method            'Materials Studio'
_symmetry_space_group_name_H-M    'P1'
_symmetry_Int_Tables_number       1
_symmetry_cell_setting            triclinic
loop_
_symmetry_equiv_pos_as_xyz
  x,y,z
_cell_length_a                    4.9900
_cell_length_b                    4.9900
_cell_length_c                    42.7003
_cell_angle_alpha                 90.0000
_cell_angle_beta                  90.0000
_cell_angle_gamma                 120.0000
loop_
_atom_site_label
_atom_site_type_symbol
_atom_site_fract_x
_atom_site_fract_y
_atom_site_fract_z
_atom_site_U_iso_or_equiv
_atom_site_adp_type
_atom_site_occupancy
Ca1    Ca    0.00000   0.00000   0.36626   0.00000  Uiso   1.00
Ca2    Ca    0.00000   0.00000   0.76581   0.00000  Uiso   1.00
Ca3    Ca    0.66667   0.33333   0.09989   0.00000  Uiso   1.00
Ca4    Ca    0.66667   0.33333   0.49944   0.00000  Uiso   1.00
Ca5    Ca    0.33333   0.66667   0.23307   0.00000  Uiso   1.00
Ca6    Ca    0.33333   0.66667   0.63263   0.00000  Uiso   1.00
Ca7    Ca    0.00000   0.00000   0.16648   0.00000  Uiso   1.00
Ca8    Ca    0.00000   0.00000   0.56603   0.00000  Uiso   1.00
Ca9    Ca    0.66667   0.33333   0.29966   0.00000  Uiso   1.00
Ca10   Ca    0.66667   0.33333   0.69922   0.00000  Uiso   1.00
Ca11   Ca    0.33333   0.66667   0.03330   0.00000  Uiso   1.00
Ca12   Ca    0.33333   0.66667   0.43285   0.00000  Uiso   1.00
C13    C     0.00000   0.00000   0.06659   0.00000  Uiso   1.00
C14    C     0.00000   0.00000   0.46614   0.00000  Uiso   1.00
C15    C     0.66667   0.33333   0.19978   0.00000  Uiso   1.00
C16    C     0.66667   0.33333   0.59933   0.00000  Uiso   1.00
C17    C     0.33333   0.66667   0.33296   0.00000  Uiso   1.00
C18    C     0.33333   0.66667   0.73251   0.00000  Uiso   1.00
C19    C     0.00000   0.00000   0.26637   0.00000  Uiso   1.00
C20    C     0.00000   0.00000   0.66592   0.00000  Uiso   1.00
C21    C     0.66667   0.33333   0.00000   0.00000  Uiso   1.00
C22    C     0.66667   0.33333   0.39955   0.00000  Uiso   1.00
C23    C     0.33333   0.66667   0.13318   0.00000  Uiso   1.00
C24    C     0.33333   0.66667   0.53274   0.00000  Uiso   1.00
O25    O     0.25682  -0.00000   0.06659   0.00000  Uiso   1.00
O26    O     0.25682  -0.00000   0.46614   0.00000  Uiso   1.00
O27    O     0.92349   0.33333   0.19978   0.00000  Uiso   1.00
O28    O     0.92349   0.33333   0.59933   0.00000  Uiso   1.00
O29    O     0.59015   0.66667   0.33296   0.00000  Uiso   1.00
O30    O     0.59015   0.66667   0.73251   0.00000  Uiso   1.00
O31    O    -0.00000   0.25682   0.06659   0.00000  Uiso   1.00
O32    O    -0.00000   0.25682   0.46614   0.00000  Uiso   1.00
O33    O     0.66667   0.59015   0.19978   0.00000  Uiso   1.00
O34    O     0.66667   0.59015   0.59933   0.00000  Uiso   1.00
O35    O     0.33333   0.92349   0.33296   0.00000  Uiso   1.00
O36    O     0.33333   0.92349   0.73251   0.00000  Uiso   1.00
O37    O    -0.25682  -0.25682   0.06659   0.00000  Uiso   1.00
O38    O    -0.25682  -0.25682   0.46614   0.00000  Uiso   1.00
O39    O     0.40985   0.07651   0.19978   0.00000  Uiso   1.00
O40    O     0.40985   0.07651   0.59933   0.00000  Uiso   1.00
O41    O     0.07651   0.40985   0.33296   0.00000  Uiso   1.00
O42    O     0.07651   0.40985   0.73251   0.00000  Uiso   1.00
O43    O    -0.25682   0.00000   0.26637   0.00000  Uiso   1.00
O44    O    -0.25682   0.00000   0.66592   0.00000  Uiso   1.00
O45    O     0.40985   0.33333   0.00000   0.00000  Uiso   1.00
O46    O     0.40985   0.33333   0.39955   0.00000  Uiso   1.00
O47    O     0.07651   0.66667   0.13318   0.00000  Uiso   1.00
O48    O     0.07651   0.66667   0.53274   0.00000  Uiso   1.00
O49    O     0.00000  -0.25682   0.26637   0.00000  Uiso   1.00
O50    O     0.00000  -0.25682   0.66592   0.00000  Uiso   1.00
O51    O     0.66667   0.07651   0.00000   0.00000  Uiso   1.00
O52    O     0.66667   0.07651   0.39955   0.00000  Uiso   1.00
O53    O     0.33333   0.40985   0.13318   0.00000  Uiso   1.00
O54    O     0.33333   0.40985   0.53274   0.00000  Uiso   1.00
O55    O     0.25682   0.25682   0.26637   0.00000  Uiso   1.00
O56    O     0.25682   0.25682   0.66592   0.00000  Uiso   1.00
O57    O     0.92349   0.59015   0.00000   0.00000  Uiso   1.00
O58    O     0.92349   0.59015   0.39955   0.00000  Uiso   1.00
O59    O     0.59015   0.92349   0.13318   0.00000  Uiso   1.00
O60    O     0.59015   0.92349   0.53274   0.00000  Uiso   1.00
loop_
_geom_bond_atom_site_label_1
_geom_bond_atom_site_label_2
_geom_bond_distance
_geom_bond_site_symmetry_2
_ccdc_geom_bond_type
C13    O25     1.282   .     A
C13    O31     1.282   .     A
C13    O37     1.282   .     A
C14    O26     1.282   .     A
C14    O32     1.282   .     A
C14    O38     1.282   .     A
C15    O27     1.282   .     A
C15    O33     1.282   .     A
C15    O39     1.282   .     A
C16    O28     1.282   .     A
C16    O34     1.282   .     A
C16    O40     1.282   .     A
C17    O29     1.282   .     A
C17    O35     1.282   .     A
C17    O41     1.282   .     A
C18    O30     1.282   .     A
C18    O36     1.282   .     A
C18    O42     1.282   .     A
C19    O43     1.282   .     A
C19    O49     1.282   .     A
C19    O55     1.282   .     A
C20    O44     1.282   .     A
C20    O50     1.282   .     A
C20    O56     1.282   .     A
C21    O45     1.282   .     A
C21    O51     1.282   .     A
C21    O57     1.282   .     A
C22    O46     1.282   .     A
C22    O52     1.282   .     A
C22    O58     1.282   .     A
C23    O47     1.282   .     A
C23    O53     1.282   .     A
C23    O59     1.282   .     A
C24    O48     1.282   .     A
C24    O54     1.282   .     A
C24    O60     1.282   .     A
