data_calcite\(1\0\4)\(2)
_audit_creation_date              2024-04-12
_audit_creation_method            'Materials Studio'
_symmetry_space_group_name_H-M    'P1'
_symmetry_Int_Tables_number       1
_symmetry_cell_setting            triclinic
loop_
_symmetry_equiv_pos_as_xyz
  x,y,z
_cell_length_a                    8.0958
_cell_length_b                    4.9900
_cell_length_c                    17.6306
_cell_angle_alpha                 90.0000
_cell_angle_beta                  90.0000
_cell_angle_gamma                 90.0000
loop_
_atom_site_label
_atom_site_type_symbol
_atom_site_fract_x
_atom_site_fract_y
_atom_site_fract_z
_atom_site_U_iso_or_equiv
_atom_site_adp_type
_atom_site_occupancy
Ca1    Ca    0.00000   0.00000   0.38858   0.00000  Uiso   1.00
Ca2    Ca    0.24018  -0.00000   0.04422   0.00000  Uiso   1.00
Ca3    Ca    0.62009   0.50000   0.21640   0.00000  Uiso   1.00
Ca4    Ca    0.74018   0.00000   0.04422   0.00000  Uiso   1.00
Ca5    Ca    0.12009   0.50000   0.21640   0.00000  Uiso   1.00
Ca6    Ca    0.50000   0.00000   0.38858   0.00000  Uiso   1.00
C7     C     0.49018   0.50000   0.04422   0.00000  Uiso   1.00
C8     C     0.87009   0.00000   0.21640   0.00000  Uiso   1.00
C9     C     0.25000   0.50000   0.38858   0.00000  Uiso   1.00
C10    C     0.37009   0.00000   0.21640   0.00000  Uiso   1.00
C11    C     0.75000   0.50000   0.38858   0.00000  Uiso   1.00
C12    C     0.99018   0.50000   0.04422   0.00000  Uiso   1.00
O13    O     0.58775   0.37159   0.08844   0.00000  Uiso   1.00
O14    O     0.96766  -0.12841   0.26062   0.00000  Uiso   1.00
O15    O     0.34757   0.37159   0.43280   0.00000  Uiso   1.00
O16    O     0.49018   0.75682   0.04422   0.00000  Uiso   1.00
O17    O     0.87009   0.25682   0.21640   0.00000  Uiso   1.00
O18    O     0.25000   0.75682   0.38858   0.00000  Uiso   1.00
O19    O     0.39261   0.37159   0.00000   0.00000  Uiso   1.00
O20    O     0.77252  -0.12841   0.17218   0.00000  Uiso   1.00
O21    O     0.15243   0.37159   0.34436   0.00000  Uiso   1.00
O22    O     0.27252   0.12841   0.17218   0.00000  Uiso   1.00
O23    O     0.65243   0.62841   0.34436   0.00000  Uiso   1.00
O24    O     0.89261   0.62841   0.00000   0.00000  Uiso   1.00
O25    O     0.37009  -0.25682   0.21640   0.00000  Uiso   1.00
O26    O     0.75000   0.24318   0.38858   0.00000  Uiso   1.00
O27    O     0.99018   0.24318   0.04422   0.00000  Uiso   1.00
O28    O     0.46766   0.12841   0.26062   0.00000  Uiso   1.00
O29    O     0.84757   0.62841   0.43280   0.00000  Uiso   1.00
O30    O     1.08775   0.62841   0.08844   0.00000  Uiso   1.00
loop_
_geom_bond_atom_site_label_1
_geom_bond_atom_site_label_2
_geom_bond_distance
_geom_bond_site_symmetry_2
_ccdc_geom_bond_type
C7     O13     1.282   .     A
C7     O16     1.282   .     A
C7     O19     1.282   .     A
C8     O14     1.282   .     A
C8     O17     1.282   .     A
C8     O20     1.282   .     A
C9     O15     1.282   .     A
C9     O18     1.282   .     A
C9     O21     1.282   .     A
C10    O22     1.282   .     A
C10    O25     1.282   .     A
C10    O28     1.282   .     A
C11    O23     1.282   .     A
C11    O26     1.282   .     A
C11    O29     1.282   .     A
C12    O24     1.282   .     A
C12    O27     1.282   .     A
C12    O30     1.282   .     A
