data_vaterite\(0\1\0)
_audit_creation_date              2024-04-12
_audit_creation_method            'Materials Studio'
_symmetry_space_group_name_H-M    'P1'
_symmetry_Int_Tables_number       1
_symmetry_cell_setting            triclinic
loop_
_symmetry_equiv_pos_as_xyz
  x,y,z
_cell_length_a                    25.3020
_cell_length_b                    7.2900
_cell_length_c                    23.0880
_cell_angle_alpha                 90.0000
_cell_angle_beta                  90.0000
_cell_angle_gamma                 90.0000
loop_
_atom_site_label
_atom_site_type_symbol
_atom_site_fract_x
_atom_site_fract_y
_atom_site_fract_z
_atom_site_U_iso_or_equiv
_atom_site_adp_type
_atom_site_occupancy
C1     C     0.99480   0.86423   0.11188   0.00000  Uiso   1.00
C2     C     0.99480   0.36423   0.38533   0.00000  Uiso   1.00
O3     O     0.62171   0.79413   0.11684   0.00000  Uiso   1.00
O4     O     0.62171   0.29413   0.39028   0.00000  Uiso   1.00
O5     O     0.94960   0.82013   0.08911   0.00000  Uiso   1.00
O6     O     0.94960   0.32013   0.36256   0.00000  Uiso   1.00
O7     O     0.99617   0.95100   0.16063   0.00000  Uiso   1.00
O8     O     0.99617   0.45101   0.43408   0.00000  Uiso   1.00
O9     O     1.03914   0.82286   0.08688   0.00000  Uiso   1.00
O10    O     1.03914   0.32287   0.36033   0.00000  Uiso   1.00
C11    C     0.66147   0.28842   0.19537   0.00000  Uiso   1.00
C12    C     0.66147   0.78843   0.46881   0.00000  Uiso   1.00
O13    O     0.28838   0.30988   0.17372   0.00000  Uiso   1.00
O14    O     0.28838   0.80988   0.44717   0.00000  Uiso   1.00
O15    O     0.61627   0.37292   0.19469   0.00000  Uiso   1.00
O16    O     0.61627   0.87292   0.46814   0.00000  Uiso   1.00
O17    O     0.66284   0.11133   0.19472   0.00000  Uiso   1.00
O18    O     0.66284   0.61133   0.46817   0.00000  Uiso   1.00
O19    O     0.70581   0.37767   0.19656   0.00000  Uiso   1.00
O20    O     0.70581   0.87768   0.47000   0.00000  Uiso   1.00
C21    C     0.32813   0.84734   0.26962   0.00000  Uiso   1.00
C22    C     0.32813   0.34734   0.54306   0.00000  Uiso   1.00
O23    O    -0.04496   0.89599   0.28631   0.00000  Uiso   1.00
O24    O    -0.04496   0.39599   0.55975   0.00000  Uiso   1.00
O25    O     0.28293   0.80694   0.29306   0.00000  Uiso   1.00
O26    O     0.28293   0.30695   0.56651   0.00000  Uiso   1.00
O27    O     0.32950   0.93766   0.22152   0.00000  Uiso   1.00
O28    O     0.32950   0.43766   0.49496   0.00000  Uiso   1.00
O29    O     0.37247   0.79946   0.29343   0.00000  Uiso   1.00
O30    O     0.37247   0.29946   0.56688   0.00000  Uiso   1.00
C31    C     0.49480   0.63576   0.18155   0.00000  Uiso   1.00
C32    C     0.49480   0.13576   0.45499   0.00000  Uiso   1.00
O33    O     0.12171   0.70587   0.17659   0.00000  Uiso   1.00
O34    O     0.12171   0.20587   0.45004   0.00000  Uiso   1.00
O35    O     0.44960   0.67987   0.20432   0.00000  Uiso   1.00
O36    O     0.44960   0.17987   0.47776   0.00000  Uiso   1.00
O37    O     0.49617   0.54899   0.13280   0.00000  Uiso   1.00
O38    O     0.49617   0.04899   0.40624   0.00000  Uiso   1.00
O39    O     0.53914   0.67713   0.20655   0.00000  Uiso   1.00
O40    O     0.53914   0.17713   0.47999   0.00000  Uiso   1.00
C41    C     0.16147   0.21157   0.09806   0.00000  Uiso   1.00
C42    C     0.16147   0.71157   0.37151   0.00000  Uiso   1.00
O43    O     0.78838   0.19012   0.11971   0.00000  Uiso   1.00
O44    O     0.78838   0.69012   0.39315   0.00000  Uiso   1.00
O45    O     0.11627   0.12708   0.09874   0.00000  Uiso   1.00
O46    O     0.11627   0.62708   0.37218   0.00000  Uiso   1.00
O47    O     0.16284   0.38867   0.09871   0.00000  Uiso   1.00
O48    O     0.16284   0.88867   0.37215   0.00000  Uiso   1.00
O49    O     0.20581   0.12232   0.09687   0.00000  Uiso   1.00
O50    O     0.20581   0.62232   0.37032   0.00000  Uiso   1.00
C51    C     0.82813   0.65266   0.02381   0.00000  Uiso   1.00
C52    C     0.82813   0.15266   0.29726   0.00000  Uiso   1.00
O53    O     0.45504   0.10401   0.28057   0.00000  Uiso   1.00
O54    O     0.45504   0.60401   0.55401   0.00000  Uiso   1.00
O55    O     0.78293   0.69305   0.00037   0.00000  Uiso   1.00
O56    O     0.78293   0.19306   0.27381   0.00000  Uiso   1.00
O57    O     0.82950   0.56233   0.07191   0.00000  Uiso   1.00
O58    O     0.82950   0.06234   0.34536   0.00000  Uiso   1.00
O59    O     0.87247   0.70054   0.00000   0.00000  Uiso   1.00
O60    O     0.87247   0.20054   0.27345   0.00000  Uiso   1.00
C61    C     0.67187   0.34734   0.02381   0.00000  Uiso   1.00
C62    C     0.67187   0.84734   0.29726   0.00000  Uiso   1.00
O63    O     0.04496   0.89599   0.28057   0.00000  Uiso   1.00
O64    O     0.04496   0.39599   0.55401   0.00000  Uiso   1.00
O65    O     0.71707   0.30694   0.00037   0.00000  Uiso   1.00
O66    O     0.71707   0.80694   0.27381   0.00000  Uiso   1.00
O67    O     0.67050   0.43766   0.07191   0.00000  Uiso   1.00
O68    O     0.67050   0.93766   0.34536   0.00000  Uiso   1.00
O69    O     0.62753   0.29946   0.00000   0.00000  Uiso   1.00
O70    O     0.62753   0.79946   0.27345   0.00000  Uiso   1.00
C71    C     0.00520   0.36423   0.18155   0.00000  Uiso   1.00
C72    C     0.00520   0.86424   0.45499   0.00000  Uiso   1.00
O73    O     0.37829   0.29413   0.17659   0.00000  Uiso   1.00
O74    O     0.37829   0.79413   0.45004   0.00000  Uiso   1.00
O75    O     0.05040   0.32013   0.20432   0.00000  Uiso   1.00
O76    O     0.05040   0.82013   0.47776   0.00000  Uiso   1.00
O77    O     0.00383   0.45100   0.13280   0.00000  Uiso   1.00
O78    O     0.00383   0.95101   0.40624   0.00000  Uiso   1.00
O79    O    -0.03914   0.32286   0.20655   0.00000  Uiso   1.00
O80    O    -0.03914   0.82287   0.47999   0.00000  Uiso   1.00
C81    C     0.33853   0.78842   0.09806   0.00000  Uiso   1.00
C82    C     0.33853   0.28842   0.37151   0.00000  Uiso   1.00
O83    O     0.71162   0.80988   0.11971   0.00000  Uiso   1.00
O84    O     0.71162   0.30988   0.39315   0.00000  Uiso   1.00
O85    O     0.38373   0.87292   0.09874   0.00000  Uiso   1.00
O86    O     0.38373   0.37292   0.37218   0.00000  Uiso   1.00
O87    O     0.33716   0.61133   0.09871   0.00000  Uiso   1.00
O88    O     0.33716   0.11133   0.37215   0.00000  Uiso   1.00
O89    O     0.29419   0.87768   0.09687   0.00000  Uiso   1.00
O90    O     0.29419   0.37768   0.37032   0.00000  Uiso   1.00
C91    C     0.17187   0.15266   0.26962   0.00000  Uiso   1.00
C92    C     0.17187   0.65266   0.54306   0.00000  Uiso   1.00
O93    O     0.54496   0.10401   0.28631   0.00000  Uiso   1.00
O94    O     0.54496   0.60401   0.55975   0.00000  Uiso   1.00
O95    O     0.21707   0.19305   0.29306   0.00000  Uiso   1.00
O96    O     0.21707   0.69306   0.56651   0.00000  Uiso   1.00
O97    O     0.17050   0.06234   0.22152   0.00000  Uiso   1.00
O98    O     0.17050   0.56234   0.49496   0.00000  Uiso   1.00
O99    O     0.12753   0.20054   0.29343   0.00000  Uiso   1.00
O100   O     0.12753   0.70054   0.56688   0.00000  Uiso   1.00
C101   C     0.50520   0.13576   0.11188   0.00000  Uiso   1.00
C102   C     0.50520   0.63576   0.38533   0.00000  Uiso   1.00
O103   O     0.87829   0.20587   0.11684   0.00000  Uiso   1.00
O104   O     0.87829   0.70587   0.39028   0.00000  Uiso   1.00
O105   O     0.55040   0.17987   0.08911   0.00000  Uiso   1.00
O106   O     0.55040   0.67987   0.36256   0.00000  Uiso   1.00
O107   O     0.50383   0.04899   0.16063   0.00000  Uiso   1.00
O108   O     0.50383   0.54899   0.43408   0.00000  Uiso   1.00
O109   O     0.46086   0.17713   0.08688   0.00000  Uiso   1.00
O110   O     0.46086   0.67713   0.36033   0.00000  Uiso   1.00
C111   C     0.83853   0.71157   0.19537   0.00000  Uiso   1.00
C112   C     0.83853   0.21157   0.46881   0.00000  Uiso   1.00
O113   O     0.21162   0.69012   0.17372   0.00000  Uiso   1.00
O114   O     0.21162   0.19012   0.44717   0.00000  Uiso   1.00
O115   O     0.88373   0.62708   0.19469   0.00000  Uiso   1.00
O116   O     0.88373   0.12708   0.46814   0.00000  Uiso   1.00
O117   O     0.83716   0.88867   0.19472   0.00000  Uiso   1.00
O118   O     0.83716   0.38867   0.46817   0.00000  Uiso   1.00
O119   O     0.79419   0.62232   0.19656   0.00000  Uiso   1.00
O120   O     0.79419   0.12232   0.47000   0.00000  Uiso   1.00
Ca121  Ca    0.08333   0.98591   0.01256   0.00000  Uiso   1.00
Ca122  Ca    0.08333   0.48591   0.28601   0.00000  Uiso   1.00
Ca123  Ca    0.08333   0.54422   0.09308   0.00000  Uiso   1.00
Ca124  Ca    0.08333   0.04422   0.36652   0.00000  Uiso   1.00
Ca125  Ca    0.08333   0.00790   0.19085   0.00000  Uiso   1.00
Ca126  Ca    0.08333   0.50790   0.46429   0.00000  Uiso   1.00
Ca127  Ca    0.75000   0.50000   0.27830   0.00000  Uiso   1.00
Ca128  Ca    0.75000  -0.00000   0.55175   0.00000  Uiso   1.00
Ca129  Ca    0.75000   0.50000   0.11726   0.00000  Uiso   1.00
Ca130  Ca    0.75000  -0.00000   0.39071   0.00000  Uiso   1.00
Ca131  Ca    0.75000  -0.00000   0.19517   0.00000  Uiso   1.00
Ca132  Ca    0.75000   0.50000   0.46862   0.00000  Uiso   1.00
Ca133  Ca    0.41667   0.01409   0.01256   0.00000  Uiso   1.00
Ca134  Ca    0.41667   0.51409   0.28601   0.00000  Uiso   1.00
Ca135  Ca    0.41667   0.45578   0.09308   0.00000  Uiso   1.00
Ca136  Ca    0.41667   0.95578   0.36652   0.00000  Uiso   1.00
Ca137  Ca    0.41667   0.99210   0.19085   0.00000  Uiso   1.00
Ca138  Ca    0.41667   0.49210   0.46429   0.00000  Uiso   1.00
Ca139  Ca    0.58333   0.51409   0.28087   0.00000  Uiso   1.00
Ca140  Ca    0.58333   0.01409   0.55432   0.00000  Uiso   1.00
Ca141  Ca    0.58333   0.95578   0.20035   0.00000  Uiso   1.00
Ca142  Ca    0.58333   0.45578   0.47380   0.00000  Uiso   1.00
Ca143  Ca    0.58333   0.49210   0.10258   0.00000  Uiso   1.00
Ca144  Ca    0.58333   0.99210   0.37603   0.00000  Uiso   1.00
Ca145  Ca    0.25000  -0.00000   0.01513   0.00000  Uiso   1.00
Ca146  Ca    0.25000   0.50000   0.28857   0.00000  Uiso   1.00
Ca147  Ca    0.25000  -0.00000   0.17616   0.00000  Uiso   1.00
Ca148  Ca    0.25000   0.50000   0.44961   0.00000  Uiso   1.00
Ca149  Ca    0.25000   0.50000   0.09826   0.00000  Uiso   1.00
Ca150  Ca    0.25000  -0.00000   0.37171   0.00000  Uiso   1.00
Ca151  Ca    0.91667   0.48591   0.28087   0.00000  Uiso   1.00
Ca152  Ca    0.91667   0.98591   0.55432   0.00000  Uiso   1.00
Ca153  Ca    0.91667   0.04422   0.20035   0.00000  Uiso   1.00
Ca154  Ca    0.91667   0.54422   0.47380   0.00000  Uiso   1.00
Ca155  Ca    0.91667   0.50790   0.10258   0.00000  Uiso   1.00
Ca156  Ca    0.91667   0.00790   0.37603   0.00000  Uiso   1.00
C157   C     0.66667   0.84548   0.09450   0.00000  Uiso   1.00
C158   C     0.66667   0.34548   0.36795   0.00000  Uiso   1.00
O159   O     0.66667   0.93449   0.04582   0.00000  Uiso   1.00
O160   O     0.66667   0.43449   0.31926   0.00000  Uiso   1.00
C161   C     0.33333   0.34548   0.19893   0.00000  Uiso   1.00
C162   C     0.33333   0.84548   0.47237   0.00000  Uiso   1.00
O163   O     0.33333   0.43449   0.24761   0.00000  Uiso   1.00
O164   O     0.33333   0.93450   0.52106   0.00000  Uiso   1.00
C165   C    -0.00000   0.80905   0.28344   0.00000  Uiso   1.00
C166   C    -0.00000   0.30905   0.55688   0.00000  Uiso   1.00
O167   O    -0.00000   0.63101   0.28344   0.00000  Uiso   1.00
O168   O    -0.00000   0.13101   0.55688   0.00000  Uiso   1.00
C169   C     0.16667   0.65452   0.19893   0.00000  Uiso   1.00
C170   C     0.16667   0.15452   0.47237   0.00000  Uiso   1.00
O171   O     0.16667   0.56550   0.24761   0.00000  Uiso   1.00
O172   O     0.16667   0.06550   0.52106   0.00000  Uiso   1.00
C173   C     0.83333   0.15452   0.09450   0.00000  Uiso   1.00
C174   C     0.83333   0.65452   0.36795   0.00000  Uiso   1.00
O175   O     0.83333   0.06550   0.04582   0.00000  Uiso   1.00
O176   O     0.83333   0.56550   0.31926   0.00000  Uiso   1.00
C177   C     0.50000   0.19095   0.28344   0.00000  Uiso   1.00
C178   C     0.50000   0.69095   0.55688   0.00000  Uiso   1.00
O179   O     0.50000   0.36899   0.28344   0.00000  Uiso   1.00
O180   O     0.50000   0.86899   0.55688   0.00000  Uiso   1.00
loop_
_geom_bond_atom_site_label_1
_geom_bond_atom_site_label_2
_geom_bond_distance
_geom_bond_site_symmetry_2
_ccdc_geom_bond_type
C1     O5      1.299   .     S
C1     O7      1.292   .     S
C1     O9      1.297   .     D
C2     O6      1.299   .     S
C2     O8      1.292   .     S
C2     O10     1.297   .     D
O3     C157    1.304   .     S
O4     C158    1.304   .     S
C11    O15     1.299   .     S
C11    O17     1.292   .     S
C11    O19     1.297   .     D
C12    O16     1.299   .     S
C12    O18     1.292   .     S
C12    O20     1.297   .     D
O13    C161    1.304   .     S
O14    C162    1.304   .     S
C21    O25     1.299   .     S
C21    O27     1.292   .     S
C21    O29     1.297   .     D
C22    O26     1.299   .     S
C22    O28     1.292   .     S
C22    O30     1.297   .     D
O23    C165    1.304   .     S
O24    C166    1.304   .     S
C31    O35     1.299   .     S
C31    O37     1.292   .     S
C31    O39     1.297   .     D
C32    O36     1.299   .     S
C32    O38     1.292   .     S
C32    O40     1.297   .     D
O33    C169    1.304   .     S
O34    C170    1.304   .     S
C41    O45     1.299   .     S
C41    O47     1.292   .     S
C41    O49     1.297   .     D
C42    O46     1.299   .     S
C42    O48     1.292   .     S
C42    O50     1.297   .     D
O43    C173    1.304   .     S
O44    C174    1.304   .     S
C51    O55     1.299   .     S
C51    O57     1.292   .     S
C51    O59     1.297   .     D
C52    O56     1.299   .     S
C52    O58     1.292   .     S
C52    O60     1.297   .     D
O53    C177    1.304   .     S
O54    C178    1.304   .     S
C61    O65     1.299   .     S
C61    O67     1.292   .     S
C61    O69     1.297   .     D
C62    O66     1.299   .     S
C62    O68     1.292   .     S
C62    O70     1.297   .     D
O63    C165    1.304   .     S
O64    C166    1.304   .     S
C71    O75     1.299   .     S
C71    O77     1.292   .     S
C71    O79     1.297   .     D
C72    O76     1.299   .     S
C72    O78     1.292   .     S
C72    O80     1.297   .     D
O73    C161    1.304   .     S
O74    C162    1.304   .     S
C81    O85     1.299   .     S
C81    O87     1.292   .     S
C81    O89     1.297   .     D
C82    O86     1.299   .     S
C82    O88     1.292   .     S
C82    O90     1.297   .     D
O83    C157    1.304   .     S
O84    C158    1.304   .     S
C91    O95     1.299   .     S
C91    O97     1.292   .     S
C91    O99     1.297   .     D
C92    O96     1.299   .     S
C92    O98     1.292   .     S
C92    O100    1.297   .     D
O93    C177    1.304   .     S
O94    C178    1.304   .     S
C101   O105    1.299   .     S
C101   O107    1.292   .     S
C101   O109    1.297   .     D
C102   O106    1.299   .     S
C102   O108    1.292   .     S
C102   O110    1.297   .     D
O103   C173    1.304   .     S
O104   C174    1.304   .     S
C111   O115    1.299   .     S
C111   O117    1.292   .     S
C111   O119    1.297   .     D
C112   O116    1.299   .     S
C112   O118    1.292   .     S
C112   O120    1.297   .     D
O113   C169    1.304   .     S
O114   C170    1.304   .     S
C157   O159    1.298   .     D
C158   O160    1.298   .     D
C161   O163    1.298   .     D
C162   O164    1.298   .     D
C165   O167    1.298   .     D
C166   O168    1.298   .     D
C169   O171    1.298   .     D
C170   O172    1.298   .     D
C173   O175    1.298   .     D
C174   O176    1.298   .     D
C177   O179    1.298   .     D
C178   O180    1.298   .     D
